L_1YET
 OpenBabel01132416383D
libRbt.so/2021.1/901 2021/07/19
 40 41  0  0  0  0  0  0  0  0999 V2000
   38.1989   10.1357   20.2072 O   0  0  0  0  0  0  0  0  0  0  0  0
   33.5670   12.9485   24.0376 O   0  0  0  0  0  0  0  0  0  0  0  0
   31.3419   11.3089   24.1011 O   0  0  0  0  0  0  0  0  0  0  0  0
   30.0189   10.7150   25.8831 O   0  0  0  0  0  0  0  0  0  0  0  0
   32.7595    5.4724   28.0373 O   0  0  0  0  0  0  0  0  0  0  0  0
   35.3654    6.6351   28.5658 O   0  0  0  0  0  0  0  0  0  0  0  0
   34.1874    4.4213   23.7553 O   0  0  0  0  0  0  0  0  0  0  0  0
   33.1689    5.5516   21.4986 O   0  0  0  0  0  0  0  0  0  0  0  0
   38.0068    7.1500   22.8426 O   0  0  0  0  0  0  0  0  0  0  0  0
   37.0228    8.2570   20.6648 N   0  0  0  0  0  0  0  0  0  0  0  0
   29.1427   11.3996   23.9130 N   0  0  0  0  0  0  0  0  0  0  0  0
   37.6027    9.4907   21.0357 C   0  0  0  0  0  0  0  0  0  0  0  0
   37.5339    9.9127   22.4717 C   0  0  0  0  0  0  0  0  0  0  0  0
   36.3226   10.1314   23.0466 C   0  0  0  0  0  0  0  0  0  0  0  0
   36.1043   10.5457   24.4293 C   0  0  0  0  0  0  0  0  0  0  0  0
   34.9879   11.1294   24.9126 C   0  0  0  0  0  0  0  0  0  0  0  0
   33.7464   11.4822   24.1713 C   0  0  1  0  0  0  0  0  0  0  0  0
   32.4313   10.9106   24.8664 C   0  0  2  0  0  0  0  0  0  0  0  0
   32.4273    9.2814   24.9964 C   0  0  0  0  0  0  0  0  0  0  0  0
   32.2983    8.7060   26.1819 C   0  0  0  0  0  0  0  0  0  0  0  0
   32.2213    7.2448   26.5116 C   0  0  1  0  0  0  0  0  0  0  0  0
   33.1056    6.8370   27.7008 C   0  0  2  0  0  0  0  0  0  0  0  0
   34.5977    6.9558   27.3862 C   0  0  2  0  0  0  0  0  0  0  0  0
   35.0687    6.0023   26.2918 C   0  0  0  0  0  0  0  0  0  0  0  0
   36.5615    6.1109   25.8971 C   0  0  1  0  0  0  0  0  0  0  0  0
   36.9188    5.2901   24.6103 C   0  0  0  0  0  0  0  0  0  0  0  0
   36.1748    5.7700   23.3983 C   0  0  0  0  0  0  0  0  0  0  0  0
   34.9517    5.3938   23.0097 C   0  0  0  0  0  0  0  0  0  0  0  0
   34.2939    5.9341   21.8051 C   0  0  0  0  0  0  0  0  0  0  0  0
   34.9930    6.9311   20.9891 C   0  0  0  0  0  0  0  0  0  0  0  0
   36.2162    7.3355   21.3268 C   0  0  0  0  0  0  0  0  0  0  0  0
   36.8748    6.7736   22.5468 C   0  0  0  0  0  0  0  0  0  0  0  0
   38.8504   10.0931   23.1607 C   0  0  0  0  0  0  0  0  0  0  0  0
   32.7212   13.3826   22.9140 C   0  0  0  0  0  0  0  0  0  0  0  0
   30.1468   11.1026   24.7459 C   0  0  0  0  0  0  0  0  0  0  0  0
   32.5325    8.5052   23.6819 C   0  0  0  0  0  0  0  0  0  0  0  0
   30.7392    6.9438   26.8261 C   0  0  0  0  0  0  0  0  0  0  0  0
   35.2803    7.6605   29.6045 C   0  0  0  0  0  0  0  0  0  0  0  0
   36.9518    7.5546   25.7666 C   0  0  0  0  0  0  0  0  0  0  0  0
   34.5278    3.0335   23.8916 C   0  0  0  0  0  0  0  0  0  0  0  0
  1 12  2  0  0  0  0
  2 34  1  0  0  0  0
  3 35  1  0  0  0  0
  4 35  2  0  0  0  0
  6 38  1  0  0  0  0
  7 28  1  0  0  0  0
  7 40  1  0  0  0  0
  8 29  2  0  0  0  0
  9 32  2  0  0  0  0
 10 12  1  0  0  0  0
 10 31  1  0  0  0  0
 11 35  1  0  0  0  0
 12 13  1  0  0  0  0
 13 14  2  0  0  0  0
 13 33  1  0  0  0  0
 14 15  1  0  0  0  0
 15 16  2  0  0  0  0
 16 17  1  0  0  0  0
 17  2  1  1  0  0  0
 17 18  1  0  0  0  0
 18  3  1  6  0  0  0
 18 19  1  0  0  0  0
 19 20  2  0  0  0  0
 19 36  1  0  0  0  0
 20 21  1  0  0  0  0
 21 22  1  0  0  0  0
 21 37  1  1  0  0  0
 22  5  1  6  0  0  0
 22 23  1  0  0  0  0
 23  6  1  1  0  0  0
 23 24  1  0  0  0  0
 24 25  1  0  0  0  0
 25 26  1  0  0  0  0
 25 39  1  6  0  0  0
 26 27  1  0  0  0  0
 27 28  2  0  0  0  0
 27 32  1  0  0  0  0
 28 29  1  0  0  0  0
 29 30  1  0  0  0  0
 30 31  2  0  0  0  0
 31 32  1  0  0  0  0
M  END
>  <CHROM.0>
64.12540954,-57.65322675,53.34742205,-57.14100212,-176.35502015,-68.63555890

>  <CHROM.1>
156.53968631,-167.77671564,5.21130411,-176.44975611,-71.16602861,-66.94133215
34.45104295,8.26640344,24.33299797,-0.16161449,0.65294462,-0.57169818

>  <Name>
L_1YET

>  <RI>
-5.39007e+08

>  <Rbt.Current_Directory>
/workspaces/rDock/perf/23.12.17962e/tests/data

>  <Rbt.Executable>
rbdock ($Id: //depot/dev/client3/rdock/2021.1/src/exe/rbdock.cxx#4 $)

>  <Rbt.Library>
libRbt.so (2021.1, Build901 2021/07/19)

>  <Rbt.Parameter_File>
../../data/scripts/dock.prm

>  <Rbt.Receptor>
1YET_test.prm

>  <SCORE>
-44.8298

>  <SCORE.INTER>
-23.9918

>  <SCORE.INTER.CONST>
1

>  <SCORE.INTER.POLAR>
-2.0203

>  <SCORE.INTER.REPUL>
0

>  <SCORE.INTER.ROT>
5

>  <SCORE.INTER.VDW>
-27.5227

>  <SCORE.INTER.norm>
-0.599794

>  <SCORE.INTRA>
-10.2712

>  <SCORE.INTRA.DIHEDRAL>
-7.26837

>  <SCORE.INTRA.DIHEDRAL.0>
15.3889

>  <SCORE.INTRA.POLAR>
0

>  <SCORE.INTRA.POLAR.0>
0

>  <SCORE.INTRA.REPUL>
0

>  <SCORE.INTRA.REPUL.0>
0

>  <SCORE.INTRA.VDW>
-6.63705

>  <SCORE.INTRA.VDW.0>
7.09596

>  <SCORE.INTRA.norm>
-0.256781

>  <SCORE.RESTR>
0

>  <SCORE.RESTR.CAVITY>
0

>  <SCORE.RESTR.norm>
0

>  <SCORE.SYSTEM>
-10.5668

>  <SCORE.SYSTEM.CONST>
0

>  <SCORE.SYSTEM.DIHEDRAL>
0.627995

>  <SCORE.SYSTEM.POLAR>
-2.86952

>  <SCORE.SYSTEM.VDW>
-1.12445

>  <SCORE.SYSTEM.norm>
-0.26417

>  <SCORE.heavy>
40

>  <SCORE.norm>
-1.12075

>  <RMSD>
0.000

$$$$
L_1YET
 OpenBabel01132416383D
libRbt.so/2021.1/901 2021/07/19
 40 41  0  0  0  0  0  0  0  0999 V2000
   36.8230    6.0099   18.0165 O   0  0  0  0  0  0  0  0  0  0  0  0
   35.5552    1.2752   22.4902 O   0  0  0  0  0  0  0  0  0  0  0  0
   36.8089    1.9300   24.8656 O   0  0  0  0  0  0  0  0  0  0  0  0
   36.0173    1.7926   27.0181 O   0  0  0  0  0  0  0  0  0  0  0  0
   33.3908    7.4366   27.9577 O   0  0  0  0  0  0  0  0  0  0  0  0
   31.4928    7.3052   25.7663 O   0  0  0  0  0  0  0  0  0  0  0  0
   36.4581    9.3790   25.0771 O   0  0  0  0  0  0  0  0  0  0  0  0
   38.7744    8.1808   24.2984 O   0  0  0  0  0  0  0  0  0  0  0  0
   35.0040    8.4152   20.6247 O   0  0  0  0  0  0  0  0  0  0  0  0
   37.2381    7.2435   19.8680 N   0  0  0  0  0  0  0  0  0  0  0  0
   38.0675    1.0293   26.4420 N   0  0  0  0  0  0  0  0  0  0  0  0
   36.4876    6.2924   19.1415 C   0  0  0  0  0  0  0  0  0  0  0  0
   35.2444    5.7330   19.7633 C   0  0  0  0  0  0  0  0  0  0  0  0
   35.3374    5.0132   20.9117 C   0  0  0  0  0  0  0  0  0  0  0  0
   34.2160    4.4095   21.6253 C   0  0  0  0  0  0  0  0  0  0  0  0
   34.2979    3.3994   22.5163 C   0  0  0  0  0  0  0  0  0  0  0  0
   35.5178    2.6779   22.9709 C   0  0  1  0  0  0  0  0  0  0  0  0
   35.6503    2.6330   24.5583 C   0  0  2  0  0  0  0  0  0  0  0  0
   35.7270    4.1161   25.2407 C   0  0  0  0  0  0  0  0  0  0  0  0
   34.8426    4.4761   26.1580 C   0  0  0  0  0  0  0  0  0  0  0  0
   34.7659    5.7568   26.9349 C   0  0  1  0  0  0  0  0  0  0  0  0
   33.3487    6.3478   27.0049 C   0  0  2  0  0  0  0  0  0  0  0  0
   32.8529    6.8378   25.6435 C   0  0  2  0  0  0  0  0  0  0  0  0
   33.6617    8.0041   25.0829 C   0  0  0  0  0  0  0  0  0  0  0  0
   33.2352    8.5119   23.6842 C   0  0  1  0  0  0  0  0  0  0  0  0
   34.2508    9.5325   23.0644 C   0  0  0  0  0  0  0  0  0  0  0  0
   35.6086    8.9310   22.8468 C   0  0  0  0  0  0  0  0  0  0  0  0
   36.6005    8.8510   23.7403 C   0  0  0  0  0  0  0  0  0  0  0  0
   37.9016    8.2259   23.4370 C   0  0  0  0  0  0  0  0  0  0  0  0
   38.1343    7.6578   22.1059 C   0  0  0  0  0  0  0  0  0  0  0  0
   37.1828    7.7170   21.1759 C   0  0  0  0  0  0  0  0  0  0  0  0
   35.8705    8.3606   21.4946 C   0  0  0  0  0  0  0  0  0  0  0  0
   33.9707    5.9981   19.0232 C   0  0  0  0  0  0  0  0  0  0  0  0
   36.8938    0.6681   22.4136 C   0  0  0  0  0  0  0  0  0  0  0  0
   36.8824    1.5999   26.1969 C   0  0  0  0  0  0  0  0  0  0  0  0
   36.8883    5.0026   24.7856 C   0  0  0  0  0  0  0  0  0  0  0  0
   35.2776    5.4381   28.3572 C   0  0  0  0  0  0  0  0  0  0  0  0
   30.5291    6.2252   25.9723 C   0  0  0  0  0  0  0  0  0  0  0  0
   32.9855    7.3463   22.7717 C   0  0  0  0  0  0  0  0  0  0  0  0
   36.3283   10.7705   25.4047 C   0  0  0  0  0  0  0  0  0  0  0  0
  1 12  2  0  0  0  0
  2 34  1  0  0  0  0
  3 35  1  0  0  0  0
  4 35  2  0  0  0  0
  6 38  1  0  0  0  0
  7 28  1  0  0  0  0
  7 40  1  0  0  0  0
  8 29  2  0  0  0  0
  9 32  2  0  0  0  0
 10 12  1  0  0  0  0
 10 31  1  0  0  0  0
 11 35  1  0  0  0  0
 12 13  1  0  0  0  0
 13 14  2  0  0  0  0
 13 33  1  0  0  0  0
 14 15  1  0  0  0  0
 15 16  2  0  0  0  0
 16 17  1  0  0  0  0
 17  2  1  1  0  0  0
 17 18  1  0  0  0  0
 18  3  1  6  0  0  0
 18 19  1  0  0  0  0
 19 20  2  0  0  0  0
 19 36  1  0  0  0  0
 20 21  1  0  0  0  0
 21 22  1  0  0  0  0
 21 37  1  1  0  0  0
 22  5  1  1  0  0  0
 22 23  1  0  0  0  0
 23  6  1  1  0  0  0
 23 24  1  0  0  0  0
 24 25  1  0  0  0  0
 25 26  1  0  0  0  0
 25 39  1  6  0  0  0
 26 27  1  0  0  0  0
 27 28  2  0  0  0  0
 27 32  1  0  0  0  0
 28 29  1  0  0  0  0
 29 30  1  0  0  0  0
 30 31  2  0  0  0  0
 31 32  1  0  0  0  0
M  END
>  <CHROM.0>
62.20781910,64.30415179,-178.11010172,-58.10081097,7.54113525,-68.17322223

>  <CHROM.1>
67.48601327,-169.27579335,2.88060764,-176.09387410,-63.63147672,120.70739357
35.39014364,5.88426981,23.71740651,-1.24154136,-1.19338794,2.37044843

>  <Name>
L_1YET

>  <RI>
-5.39007e+08

>  <Rbt.Current_Directory>
/workspaces/rDock/perf/23.12.17962e/tests/data

>  <Rbt.Executable>
rbdock ($Id: //depot/dev/client3/rdock/2021.1/src/exe/rbdock.cxx#4 $)

>  <Rbt.Library>
libRbt.so (2021.1, Build901 2021/07/19)

>  <Rbt.Parameter_File>
../../data/scripts/dock.prm

>  <Rbt.Receptor>
1YET_test.prm

>  <SCORE>
-26.0347

>  <SCORE.INTER>
-6.22447

>  <SCORE.INTER.CONST>
1

>  <SCORE.INTER.POLAR>
-0.587536

>  <SCORE.INTER.REPUL>
0.254651

>  <SCORE.INTER.ROT>
5

>  <SCORE.INTER.VDW>
-15.9001

>  <SCORE.INTER.norm>
-0.155612

>  <SCORE.INTRA>
-12.0806

>  <SCORE.INTRA.DIHEDRAL>
-10.6731

>  <SCORE.INTRA.DIHEDRAL.0>
15.3889

>  <SCORE.INTRA.POLAR>
0

>  <SCORE.INTRA.POLAR.0>
0

>  <SCORE.INTRA.REPUL>
0

>  <SCORE.INTRA.REPUL.0>
0

>  <SCORE.INTRA.VDW>
-6.74403

>  <SCORE.INTRA.VDW.0>
7.09596

>  <SCORE.INTRA.norm>
-0.302015

>  <SCORE.RESTR>
0

>  <SCORE.RESTR.CAVITY>
0

>  <SCORE.RESTR.norm>
0

>  <SCORE.SYSTEM>
-7.72963

>  <SCORE.SYSTEM.CONST>
0

>  <SCORE.SYSTEM.DIHEDRAL>
0.548039

>  <SCORE.SYSTEM.POLAR>
-1.94298

>  <SCORE.SYSTEM.VDW>
-1.39751

>  <SCORE.SYSTEM.norm>
-0.193241

>  <SCORE.heavy>
40

>  <SCORE.norm>
-0.650867

>  <RMSD>
0.453

$$$$
L_1YET
 OpenBabel01132416383D
libRbt.so/2021.1/901 2021/07/19
 40 41  0  0  0  0  0  0  0  0999 V2000
   38.3002    9.9529   19.9874 O   0  0  0  0  0  0  0  0  0  0  0  0
   33.5699   12.7952   23.6729 O   0  0  0  0  0  0  0  0  0  0  0  0
   31.3890   11.1002   23.7922 O   0  0  0  0  0  0  0  0  0  0  0  0
   30.0708   10.5448   25.5901 O   0  0  0  0  0  0  0  0  0  0  0  0
   32.9365    5.4713   27.9742 O   0  0  0  0  0  0  0  0  0  0  0  0
   35.5069    6.7247   28.4682 O   0  0  0  0  0  0  0  0  0  0  0  0
   34.4199    4.2835   23.7472 O   0  0  0  0  0  0  0  0  0  0  0  0
   33.3862    5.2919   21.4402 O   0  0  0  0  0  0  0  0  0  0  0  0
   38.1708    7.0743   22.7430 O   0  0  0  0  0  0  0  0  0  0  0  0
   37.1718    8.0636   20.5160 N   0  0  0  0  0  0  0  0  0  0  0  0
   29.1895   11.1237   23.5886 N   0  0  0  0  0  0  0  0  0  0  0  0
   37.7161    9.3267   20.8386 C   0  0  0  0  0  0  0  0  0  0  0  0
   37.6267    9.8056   22.2555 C   0  0  0  0  0  0  0  0  0  0  0  0
   36.4062   10.0150   22.8143 C   0  0  0  0  0  0  0  0  0  0  0  0
   36.1679   10.4800   24.1775 C   0  0  0  0  0  0  0  0  0  0  0  0
   35.0332   11.0528   24.6301 C   0  0  0  0  0  0  0  0  0  0  0  0
   33.7875   11.3411   23.8682 C   0  0  1  0  0  0  0  0  0  0  0  0
   32.4837   10.7633   24.5792 C   0  0  2  0  0  0  0  0  0  0  0  0
   32.5224    9.1414   24.7765 C   0  0  0  0  0  0  0  0  0  0  0  0
   32.4011    8.6121   25.9841 C   0  0  0  0  0  0  0  0  0  0  0  0
   32.3610    7.1642   26.3736 C   0  0  1  0  0  0  0  0  0  0  0  0
   33.2482    6.8297   27.5834 C   0  0  2  0  0  0  0  0  0  0  0  0
   34.7386    6.9757   27.2722 C   0  0  2  0  0  0  0  0  0  0  0  0
   35.2420    5.9909   26.2208 C   0  0  0  0  0  0  0  0  0  0  0  0
   36.7339    6.1234   25.8300 C   0  0  1  0  0  0  0  0  0  0  0  0
   37.1214    5.2602   24.5803 C   0  0  0  0  0  0  0  0  0  0  0  0
   36.3728    5.6694   23.3454 C   0  0  0  0  0  0  0  0  0  0  0  0
   35.1627    5.2447   22.9661 C   0  0  0  0  0  0  0  0  0  0  0  0
   34.4986    5.7169   21.7366 C   0  0  0  0  0  0  0  0  0  0  0  0
   35.1761    6.6979   20.8839 C   0  0  0  0  0  0  0  0  0  0  0  0
   36.3858    7.1488   21.2112 C   0  0  0  0  0  0  0  0  0  0  0  0
   37.0512    6.6556   22.4569 C   0  0  0  0  0  0  0  0  0  0  0  0
   38.9333   10.0497   22.9436 C   0  0  0  0  0  0  0  0  0  0  0  0
   32.7201   13.1597   22.5278 C   0  0  0  0  0  0  0  0  0  0  0  0
   30.1957   10.8885   24.4385 C   0  0  0  0  0  0  0  0  0  0  0  0
   32.6569    8.3148   23.4959 C   0  0  0  0  0  0  0  0  0  0  0  0
   30.8855    6.8365   26.6922 C   0  0  0  0  0  0  0  0  0  0  0  0
   35.3876    7.7894   29.4631 C   0  0  0  0  0  0  0  0  0  0  0  0
   37.0863    7.5705   25.6420 C   0  0  0  0  0  0  0  0  0  0  0  0
   34.7963    2.9122   23.9427 C   0  0  0  0  0  0  0  0  0  0  0  0
  1 12  2  0  0  0  0
  2 34  1  0  0  0  0
  3 35  1  0  0  0  0
  4 35  2  0  0  0  0
  6 38  1  0  0  0  0
  7 28  1  0  0  0  0
  7 40  1  0  0  0  0
  8 29  2  0  0  0  0
  9 32  2  0  0  0  0
 10 12  1  0  0  0  0
 10 31  1  0  0  0  0
 11 35  1  0  0  0  0
 12 13  1  0  0  0  0
 13 14  2  0  0  0  0
 13 33  1  0  0  0  0
 14 15  1  0  0  0  0
 15 16  2  0  0  0  0
 16 17  1  0  0  0  0
 17  2  1  1  0  0  0
 17 18  1  0  0  0  0
 18  3  1  6  0  0  0
 18 19  1  0  0  0  0
 19 20  2  0  0  0  0
 19 36  1  0  0  0  0
 20 21  1  0  0  0  0
 21 22  1  0  0  0  0
 21 37  1  1  0  0  0
 22  5  1  6  0  0  0
 22 23  1  0  0  0  0
 23  6  1  1  0  0  0
 23 24  1  0  0  0  0
 24 25  1  0  0  0  0
 25 26  1  0  0  0  0
 25 39  1  6  0  0  0
 26 27  1  0  0  0  0
 27 28  2  0  0  0  0
 27 32  1  0  0  0  0
 28 29  1  0  0  0  0
 29 30  1  0  0  0  0
 30 31  2  0  0  0  0
 31 32  1  0  0  0  0
M  END
>  <CHROM.0>
62.79171791,-58.85233332,54.54316359,105.51681679,7.40565879,-68.14090489

>  <CHROM.1>
-55.71910518,-162.44118539,1.00360198,-179.77395726,-71.53147779,-61.45481770
34.57812587,8.15701091,24.17083266,-0.17685013,0.65515812,-0.58756756

>  <Name>
L_1YET

>  <RI>
-5.39007e+08

>  <Rbt.Current_Directory>
/workspaces/rDock/perf/23.12.17962e/tests/data

>  <Rbt.Executable>
rbdock ($Id: //depot/dev/client3/rdock/2021.1/src/exe/rbdock.cxx#4 $)

>  <Rbt.Library>
libRbt.so (2021.1, Build901 2021/07/19)

>  <Rbt.Parameter_File>
../../data/scripts/dock.prm

>  <Rbt.Receptor>
1YET_test.prm

>  <SCORE>
-44.6051

>  <SCORE.INTER>
-25.1088

>  <SCORE.INTER.CONST>
1

>  <SCORE.INTER.POLAR>
-2.34708

>  <SCORE.INTER.REPUL>
0.00055535

>  <SCORE.INTER.ROT>
5

>  <SCORE.INTER.VDW>
-27.5316

>  <SCORE.INTER.norm>
-0.627721

>  <SCORE.INTRA>
-10.8125

>  <SCORE.INTRA.DIHEDRAL>
-9.4007

>  <SCORE.INTRA.DIHEDRAL.0>
15.3889

>  <SCORE.INTRA.POLAR>
0

>  <SCORE.INTRA.POLAR.0>
0

>  <SCORE.INTRA.REPUL>
0

>  <SCORE.INTRA.REPUL.0>
0

>  <SCORE.INTRA.VDW>
-6.11216

>  <SCORE.INTRA.VDW.0>
7.09596

>  <SCORE.INTRA.norm>
-0.270313

>  <SCORE.RESTR>
0

>  <SCORE.RESTR.CAVITY>
0

>  <SCORE.RESTR.norm>
0

>  <SCORE.SYSTEM>
-8.6837

>  <SCORE.SYSTEM.CONST>
0

>  <SCORE.SYSTEM.DIHEDRAL>
3.63459

>  <SCORE.SYSTEM.POLAR>
-2.86954

>  <SCORE.SYSTEM.VDW>
-0.744579

>  <SCORE.SYSTEM.norm>
-0.217093

>  <SCORE.heavy>
40

>  <SCORE.norm>
-1.11513

>  <RMSD>
0.382

$$$$
L_1YET
 OpenBabel01132416383D
libRbt.so/2021.1/901 2021/07/19
 40 41  0  0  0  0  0  0  0  0999 V2000
   38.2459   10.1896   20.2399 O   0  0  0  0  0  0  0  0  0  0  0  0
   33.4830   12.8982   23.9836 O   0  0  0  0  0  0  0  0  0  0  0  0
   31.3040   11.1972   24.0283 O   0  0  0  0  0  0  0  0  0  0  0  0
   29.9729   10.5791   25.7960 O   0  0  0  0  0  0  0  0  0  0  0  0
   32.8284    5.4311   28.0278 O   0  0  0  0  0  0  0  0  0  0  0  0
   35.3929    6.6704   28.5840 O   0  0  0  0  0  0  0  0  0  0  0  0
   34.3460    4.3901   23.7743 O   0  0  0  0  0  0  0  0  0  0  0  0
   33.3284    5.4751   21.4951 O   0  0  0  0  0  0  0  0  0  0  0  0
   38.1000    7.2185   22.8947 O   0  0  0  0  0  0  0  0  0  0  0  0
   37.1165    8.2818   20.6951 N   0  0  0  0  0  0  0  0  0  0  0  0
   29.1060   11.2247   23.8087 N   0  0  0  0  0  0  0  0  0  0  0  0
   37.6563    9.5340   21.0648 C   0  0  0  0  0  0  0  0  0  0  0  0
   37.5552    9.9641   22.4964 C   0  0  0  0  0  0  0  0  0  0  0  0
   36.3302   10.1528   23.0526 C   0  0  0  0  0  0  0  0  0  0  0  0
   36.0808   10.5706   24.4290 C   0  0  0  0  0  0  0  0  0  0  0  0
   34.9417   11.1261   24.8922 C   0  0  0  0  0  0  0  0  0  0  0  0
   33.7014   11.4386   24.1309 C   0  0  1  0  0  0  0  0  0  0  0  0
   32.3931   10.8352   24.8118 C   0  0  2  0  0  0  0  0  0  0  0  0
   32.4329    9.2075   24.9540 C   0  0  0  0  0  0  0  0  0  0  0  0
   32.3032    8.6372   26.1418 C   0  0  0  0  0  0  0  0  0  0  0  0
   32.2625    7.1768   26.4814 C   0  0  1  0  0  0  0  0  0  0  0  0
   33.1409    6.8025   27.6859 C   0  0  2  0  0  0  0  0  0  0  0  0
   34.6334    6.9609   27.3914 C   0  0  2  0  0  0  0  0  0  0  0  0
   35.1465    6.0133   26.3109 C   0  0  0  0  0  0  0  0  0  0  0  0
   36.6411    6.1610   25.9364 C   0  0  1  0  0  0  0  0  0  0  0  0
   37.0395    5.3414   24.6610 C   0  0  0  0  0  0  0  0  0  0  0  0
   36.2997    5.7915   23.4351 C   0  0  0  0  0  0  0  0  0  0  0  0
   35.0933    5.3783   23.0322 C   0  0  0  0  0  0  0  0  0  0  0  0
   34.4378    5.8913   21.8144 C   0  0  0  0  0  0  0  0  0  0  0  0
   35.1202    6.9017   21.0008 C   0  0  0  0  0  0  0  0  0  0  0  0
   36.3267    7.3428   21.3526 C   0  0  0  0  0  0  0  0  0  0  0  0
   36.9833    6.8083   22.5859 C   0  0  0  0  0  0  0  0  0  0  0  0
   38.8562   10.1864   23.2025 C   0  0  0  0  0  0  0  0  0  0  0  0
   32.6414   13.3004   22.8451 C   0  0  0  0  0  0  0  0  0  0  0  0
   30.1061   10.9620   24.6578 C   0  0  0  0  0  0  0  0  0  0  0  0
   32.5785    8.4252   23.6469 C   0  0  0  0  0  0  0  0  0  0  0  0
   30.7851    6.8364   26.7774 C   0  0  0  0  0  0  0  0  0  0  0  0
   35.2644    7.7004   29.6137 C   0  0  0  0  0  0  0  0  0  0  0  0
   36.9926    7.6141   25.8005 C   0  0  0  0  0  0  0  0  0  0  0  0
   34.7232    3.0134   23.9258 C   0  0  0  0  0  0  0  0  0  0  0  0
  1 12  2  0  0  0  0
  2 34  1  0  0  0  0
  3 35  1  0  0  0  0
  4 35  2  0  0  0  0
  6 38  1  0  0  0  0
  7 28  1  0  0  0  0
  7 40  1  0  0  0  0
  8 29  2  0  0  0  0
  9 32  2  0  0  0  0
 10 12  1  0  0  0  0
 10 31  1  0  0  0  0
 11 35  1  0  0  0  0
 12 13  1  0  0  0  0
 13 14  2  0  0  0  0
 13 33  1  0  0  0  0
 14 15  1  0  0  0  0
 15 16  2  0  0  0  0
 16 17  1  0  0  0  0
 17  2  1  1  0  0  0
 17 18  1  0  0  0  0
 18  3  1  6  0  0  0
 18 19  1  0  0  0  0
 19 20  2  0  0  0  0
 19 36  1  0  0  0  0
 20 21  1  0  0  0  0
 21 22  1  0  0  0  0
 21 37  1  1  0  0  0
 22  5  1  6  0  0  0
 22 23  1  0  0  0  0
 23  6  1  1  0  0  0
 23 24  1  0  0  0  0
 24 25  1  0  0  0  0
 25 26  1  0  0  0  0
 25 39  1  6  0  0  0
 26 27  1  0  0  0  0
 27 28  2  0  0  0  0
 27 32  1  0  0  0  0
 28 29  1  0  0  0  0
 29 30  1  0  0  0  0
 30 31  2  0  0  0  0
 31 32  1  0  0  0  0
M  END
>  <CHROM.0>
62.81267260,-58.15417092,-65.74127259,-143.34368950,-176.45018893,-68.37175072

>  <CHROM.1>
153.35565991,-165.68803831,4.53544200,-177.88887697,-72.81258653,-71.55973605
34.49360084,8.24525559,24.32646478,-0.15166548,0.62652087,-0.58883898

>  <Name>
L_1YET

>  <RI>
-5.39007e+08

>  <Rbt.Current_Directory>
/workspaces/rDock/perf/23.12.17962e/tests/data

>  <Rbt.Executable>
rbdock ($Id: //depot/dev/client3/rdock/2021.1/src/exe/rbdock.cxx#4 $)

>  <Rbt.Library>
libRbt.so (2021.1, Build901 2021/07/19)

>  <Rbt.Parameter_File>
../../data/scripts/dock.prm

>  <Rbt.Receptor>
1YET_test.prm

>  <SCORE>
-45.7995

>  <SCORE.INTER>
-26.5214

>  <SCORE.INTER.CONST>
1

>  <SCORE.INTER.POLAR>
-2.73453

>  <SCORE.INTER.REPUL>
0

>  <SCORE.INTER.ROT>
5

>  <SCORE.INTER.VDW>
-27.624

>  <SCORE.INTER.norm>
-0.663034

>  <SCORE.INTRA>
-10.3214

>  <SCORE.INTRA.DIHEDRAL>
-6.0985

>  <SCORE.INTRA.DIHEDRAL.0>
15.3889

>  <SCORE.INTRA.POLAR>
0

>  <SCORE.INTRA.POLAR.0>
0

>  <SCORE.INTRA.REPUL>
0

>  <SCORE.INTRA.REPUL.0>
0

>  <SCORE.INTRA.VDW>
-7.27218

>  <SCORE.INTRA.VDW.0>
7.09596

>  <SCORE.INTRA.norm>
-0.258036

>  <SCORE.RESTR>
0

>  <SCORE.RESTR.CAVITY>
0

>  <SCORE.RESTR.norm>
0

>  <SCORE.SYSTEM>
-8.95671

>  <SCORE.SYSTEM.CONST>
0

>  <SCORE.SYSTEM.DIHEDRAL>
2.91825

>  <SCORE.SYSTEM.POLAR>
-2.86902

>  <SCORE.SYSTEM.VDW>
-0.661176

>  <SCORE.SYSTEM.norm>
-0.223918

>  <SCORE.heavy>
40

>  <SCORE.norm>
-1.14499

>  <RMSD>
0.023

$$$$
L_1YET
 OpenBabel01132416383D
libRbt.so/2021.1/901 2021/07/19
 40 41  0  0  0  0  0  0  0  0999 V2000
   38.2462   10.1978   20.1635 O   0  0  0  0  0  0  0  0  0  0  0  0
   33.4958   12.9178   23.9150 O   0  0  0  0  0  0  0  0  0  0  0  0
   31.3166   11.2174   23.9711 O   0  0  0  0  0  0  0  0  0  0  0  0
   29.9910   10.6043   25.7446 O   0  0  0  0  0  0  0  0  0  0  0  0
   32.8522    5.4617   27.9813 O   0  0  0  0  0  0  0  0  0  0  0  0
   35.4188    6.7018   28.5261 O   0  0  0  0  0  0  0  0  0  0  0  0
   34.3561    4.4088   23.7258 O   0  0  0  0  0  0  0  0  0  0  0  0
   33.3316    5.4880   21.4469 O   0  0  0  0  0  0  0  0  0  0  0  0
   38.1080    7.2340   22.8268 O   0  0  0  0  0  0  0  0  0  0  0  0
   37.1178    8.2916   20.6274 N   0  0  0  0  0  0  0  0  0  0  0  0
   29.1179   11.2448   23.7584 N   0  0  0  0  0  0  0  0  0  0  0  0
   37.6591    9.5446   20.9920 C   0  0  0  0  0  0  0  0  0  0  0  0
   37.5627    9.9786   22.4228 C   0  0  0  0  0  0  0  0  0  0  0  0
   36.3395   10.1691   22.9824 C   0  0  0  0  0  0  0  0  0  0  0  0
   36.0944   10.5907   24.3584 C   0  0  0  0  0  0  0  0  0  0  0  0
   34.9570   11.1477   24.8237 C   0  0  0  0  0  0  0  0  0  0  0  0
   33.7144   11.4584   24.0655 C   0  0  1  0  0  0  0  0  0  0  0  0
   32.4081   10.8572   24.7521 C   0  0  2  0  0  0  0  0  0  0  0  0
   32.4480    9.2299   24.8985 C   0  0  0  0  0  0  0  0  0  0  0  0
   32.3219    8.6628   26.0883 C   0  0  0  0  0  0  0  0  0  0  0  0
   32.2819    7.2033   26.4320 C   0  0  1  0  0  0  0  0  0  0  0  0
   33.1640    6.8320   27.6347 C   0  0  2  0  0  0  0  0  0  0  0  0
   34.6556    6.9893   27.3351 C   0  0  2  0  0  0  0  0  0  0  0  0
   35.1650    6.0386   26.2555 C   0  0  0  0  0  0  0  0  0  0  0  0
   36.6585    6.1850   25.8759 C   0  0  1  0  0  0  0  0  0  0  0  0
   37.0527    5.3619   24.6014 C   0  0  0  0  0  0  0  0  0  0  0  0
   36.3091    5.8089   23.3766 C   0  0  0  0  0  0  0  0  0  0  0  0
   35.1013    5.3949   22.9787 C   0  0  0  0  0  0  0  0  0  0  0  0
   34.4421    5.9048   21.7616 C   0  0  0  0  0  0  0  0  0  0  0  0
   35.1222    6.9128   20.9432 C   0  0  0  0  0  0  0  0  0  0  0  0
   36.3299    7.3545   21.2899 C   0  0  0  0  0  0  0  0  0  0  0  0
   36.9903    6.8232   22.5226 C   0  0  0  0  0  0  0  0  0  0  0  0
   38.8659   10.2024   23.1242 C   0  0  0  0  0  0  0  0  0  0  0  0
   32.6508   13.3170   22.7780 C   0  0  0  0  0  0  0  0  0  0  0  0
   30.1206   10.9842   24.6050 C   0  0  0  0  0  0  0  0  0  0  0  0
   32.5892    8.4440   23.5932 C   0  0  0  0  0  0  0  0  0  0  0  0
   30.8053    6.8642   26.7335 C   0  0  0  0  0  0  0  0  0  0  0  0
   35.2937    7.7346   29.5533 C   0  0  0  0  0  0  0  0  0  0  0  0
   37.0099    7.6377   25.7350 C   0  0  0  0  0  0  0  0  0  0  0  0
   34.7334    3.0325   23.8798 C   0  0  0  0  0  0  0  0  0  0  0  0
  1 12  2  0  0  0  0
  2 34  1  0  0  0  0
  3 35  1  0  0  0  0
  4 35  2  0  0  0  0
  6 38  1  0  0  0  0
  7 28  1  0  0  0  0
  7 40  1  0  0  0  0
  8 29  2  0  0  0  0
  9 32  2  0  0  0  0
 10 12  1  0  0  0  0
 10 31  1  0  0  0  0
 11 35  1  0  0  0  0
 12 13  1  0  0  0  0
 13 14  2  0  0  0  0
 13 33  1  0  0  0  0
 14 15  1  0  0  0  0
 15 16  2  0  0  0  0
 16 17  1  0  0  0  0
 17  2  1  1  0  0  0
 17 18  1  0  0  0  0
 18  3  1  6  0  0  0
 18 19  1  0  0  0  0
 19 20  2  0  0  0  0
 19 36  1  0  0  0  0
 20 21  1  0  0  0  0
 21 22  1  0  0  0  0
 21 37  1  1  0  0  0
 22  5  1  6  0  0  0
 22 23  1  0  0  0  0
 23  6  1  1  0  0  0
 23 24  1  0  0  0  0
 24 25  1  0  0  0  0
 25 26  1  0  0  0  0
 25 39  1  6  0  0  0
 26 27  1  0  0  0  0
 27 28  2  0  0  0  0
 27 32  1  0  0  0  0
 28 29  1  0  0  0  0
 29 30  1  0  0  0  0
 30 31  2  0  0  0  0
 31 32  1  0  0  0  0
M  END
>  <CHROM.0>
61.77681755,179.71524812,-65.74639953,60.00961258,7.79230598,63.31884815

>  <CHROM.1>
155.52139670,-165.14608221,3.26862973,-178.11893874,-75.75911891,-62.18199427
34.50656668,8.26568170,24.26741162,-0.16349640,0.62688205,-0.59402855

>  <Name>
L_1YET

>  <RI>
-5.39007e+08

>  <Rbt.Current_Directory>
/workspaces/rDock/perf/23.12.17962e/tests/data

>  <Rbt.Executable>
rbdock ($Id: //depot/dev/client3/rdock/2021.1/src/exe/rbdock.cxx#4 $)

>  <Rbt.Library>
libRbt.so (2021.1, Build901 2021/07/19)

>  <Rbt.Parameter_File>
../../data/scripts/dock.prm

>  <Rbt.Receptor>
1YET_test.prm

>  <SCORE>
-40.7907

>  <SCORE.INTER>
-24.1639

>  <SCORE.INTER.CONST>
1

>  <SCORE.INTER.POLAR>
-2.09501

>  <SCORE.INTER.REPUL>
0.00203538

>  <SCORE.INTER.ROT>
5

>  <SCORE.INTER.VDW>
-27.451

>  <SCORE.INTER.norm>
-0.604097

>  <SCORE.INTRA>
-10.2781

>  <SCORE.INTRA.DIHEDRAL>
-6.68432

>  <SCORE.INTRA.DIHEDRAL.0>
15.3889

>  <SCORE.INTRA.POLAR>
0

>  <SCORE.INTRA.POLAR.0>
0

>  <SCORE.INTRA.REPUL>
0

>  <SCORE.INTRA.REPUL.0>
0

>  <SCORE.INTRA.VDW>
-6.93596

>  <SCORE.INTRA.VDW.0>
7.09596

>  <SCORE.INTRA.norm>
-0.256953

>  <SCORE.RESTR>
0

>  <SCORE.RESTR.CAVITY>
0

>  <SCORE.RESTR.norm>
0

>  <SCORE.SYSTEM>
-6.34872

>  <SCORE.SYSTEM.CONST>
0

>  <SCORE.SYSTEM.DIHEDRAL>
0.247655

>  <SCORE.SYSTEM.POLAR>
-1.03953

>  <SCORE.SYSTEM.VDW>
-2.93814

>  <SCORE.SYSTEM.norm>
-0.158718

>  <SCORE.heavy>
40

>  <SCORE.norm>
-1.01977

>  <RMSD>
0.029

$$$$
