L_1YET
  rDOCK(R)          3D
libRbt.so/2021.1/901 2021/07/19
 44 45  0  0  0  0  0  0  0  0999 V2000
   38.1989   10.1357   20.2072 O   0  0  0  0  0  0
   33.5670   12.9485   24.0376 O   0  0  0  0  0  0
   31.3419   11.3089   24.1011 O   0  0  0  0  0  0
   30.0189   10.7150   25.8831 O   0  0  0  0  0  0
   32.7595    5.4724   28.0373 O   0  0  0  0  0  0
   35.3654    6.6351   28.5658 O   0  0  0  0  0  0
   34.1874    4.4213   23.7553 O   0  0  0  0  0  0
   33.1689    5.5516   21.4986 O   0  0  0  0  0  0
   38.0068    7.1500   22.8426 O   0  0  0  0  0  0
   37.0228    8.2570   20.6648 N   0  0  0  0  0  0
   29.1427   11.3996   23.9130 N   0  0  0  0  0  0
   37.6027    9.4907   21.0357 C   0  0  0  0  0  0
   37.5339    9.9127   22.4717 C   0  0  0  0  0  0
   36.3226   10.1314   23.0466 C   0  0  0  0  0  0
   36.1043   10.5457   24.4293 C   0  0  0  0  0  0
   34.9879   11.1294   24.9126 C   0  0  0  0  0  0
   33.7464   11.4822   24.1713 C   0  0  0  0  0  0
   32.4313   10.9106   24.8664 C   0  0  0  0  0  0
   32.4273    9.2814   24.9964 C   0  0  0  0  0  0
   32.2983    8.7060   26.1819 C   0  0  0  0  0  0
   32.2213    7.2448   26.5116 C   0  0  0  0  0  0
   33.1056    6.8370   27.7008 C   0  0  0  0  0  0
   34.5977    6.9558   27.3862 C   0  0  0  0  0  0
   35.0687    6.0023   26.2918 C   0  0  0  0  0  0
   36.5615    6.1109   25.8971 C   0  0  0  0  0  0
   36.9188    5.2901   24.6103 C   0  0  0  0  0  0
   36.1748    5.7700   23.3983 C   0  0  0  0  0  0
   34.9517    5.3938   23.0097 C   0  0  0  0  0  0
   34.2939    5.9341   21.8051 C   0  0  0  0  0  0
   34.9930    6.9311   20.9891 C   0  0  0  0  0  0
   36.2162    7.3355   21.3268 C   0  0  0  0  0  0
   36.8748    6.7736   22.5468 C   0  0  0  0  0  0
   38.8504   10.0931   23.1607 C   0  0  0  0  0  0
   32.7212   13.3826   22.9140 C   0  0  0  0  0  0
   30.1468   11.1026   24.7459 C   0  0  0  0  0  0
   32.5325    8.5052   23.6819 C   0  0  0  0  0  0
   30.7392    6.9438   26.8261 C   0  0  0  0  0  0
   35.2803    7.6605   29.6045 C   0  0  0  0  0  0
   36.9518    7.5546   25.7666 C   0  0  0  0  0  0
   34.5278    3.0335   23.8916 C   0  0  0  0  0  0
   33.2891    5.1788   28.8705 H   0  0  0  0  0  0
   37.2441    7.9800   19.6977 H   0  0  0  0  0  0
   29.3458   11.7243   22.9568 H   0  0  0  0  0  0
   28.1668   11.3033   24.2279 H   0  0  0  0  0  0
  1 12  2  0  0  0
  2 17  1  0  0  0
  2 34  1  0  0  0
  3 18  1  0  0  0
  3 35  1  0  0  0
  4 35  2  0  0  0
  5 22  1  0  0  0
  6 23  1  0  0  0
  6 38  1  0  0  0
  7 28  1  0  0  0
  7 40  1  0  0  0
  8 29  2  0  0  0
  9 32  2  0  0  0
 10 12  1  0  0  0
 10 31  1  0  0  0
 11 35  1  0  0  0
 12 13  1  0  0  0
 13 14  2  0  0  0
 13 33  1  0  0  0
 14 15  1  0  0  0
 15 16  2  0  0  0
 16 17  1  0  0  0
 17 18  1  0  0  0
 18 19  1  0  0  0
 19 20  2  0  0  0
 19 36  1  0  0  0
 20 21  1  0  0  0
 21 22  1  0  0  0
 21 37  1  0  0  0
 22 23  1  0  0  0
 23 24  1  0  0  0
 24 25  1  0  0  0
 25 26  1  0  0  0
 25 39  1  0  0  0
 26 27  1  0  0  0
 27 28  2  0  0  0
 27 32  1  0  0  0
 28 29  1  0  0  0
 29 30  1  0  0  0
 30 31  2  0  0  0
 31 32  1  0  0  0
  5 41  1  0  0  0
 10 42  1  0  0  0
 11 43  1  0  0  0
 11 44  1  0  0  0
M  END
>  <CHROM.0>
64.12540954,-57.65322675,53.34742205,-57.14100212,-176.35502015,-68.63555890

>  <CHROM.1>
156.53968631,-167.77671564,5.21130411,-176.44975611,-71.16602861,-66.94133215
34.45104295,8.26640344,24.33299797,-0.16161449,0.65294462,-0.57169818

>  <Name>
L_1YET

>  <RI>
-5.39007e+08

>  <Rbt.Current_Directory>
/workspaces/rDock/perf/23.12.17962e/tests/data

>  <Rbt.Executable>
rbdock ($Id: //depot/dev/client3/rdock/2021.1/src/exe/rbdock.cxx#4 $)

>  <Rbt.Library>
libRbt.so (2021.1, Build901 2021/07/19)

>  <Rbt.Parameter_File>
../../data/scripts/dock.prm

>  <Rbt.Receptor>
1YET_test.prm

>  <SCORE>
-44.8298

>  <SCORE.INTER>
-23.9918

>  <SCORE.INTER.CONST>
1

>  <SCORE.INTER.POLAR>
-2.0203

>  <SCORE.INTER.REPUL>
0

>  <SCORE.INTER.ROT>
5

>  <SCORE.INTER.VDW>
-27.5227

>  <SCORE.INTER.norm>
-0.599794

>  <SCORE.INTRA>
-10.2712

>  <SCORE.INTRA.DIHEDRAL>
-7.26837

>  <SCORE.INTRA.DIHEDRAL.0>
15.3889

>  <SCORE.INTRA.POLAR>
0

>  <SCORE.INTRA.POLAR.0>
0

>  <SCORE.INTRA.REPUL>
0

>  <SCORE.INTRA.REPUL.0>
0

>  <SCORE.INTRA.VDW>
-6.63705

>  <SCORE.INTRA.VDW.0>
7.09596

>  <SCORE.INTRA.norm>
-0.256781

>  <SCORE.RESTR>
0

>  <SCORE.RESTR.CAVITY>
0

>  <SCORE.RESTR.norm>
0

>  <SCORE.SYSTEM>
-10.5668

>  <SCORE.SYSTEM.CONST>
0

>  <SCORE.SYSTEM.DIHEDRAL>
0.627995

>  <SCORE.SYSTEM.POLAR>
-2.86952

>  <SCORE.SYSTEM.VDW>
-1.12445

>  <SCORE.SYSTEM.norm>
-0.26417

>  <SCORE.heavy>
40

>  <SCORE.norm>
-1.12075

$$$$
L_1YET
  rDOCK(R)          3D
libRbt.so/2021.1/901 2021/07/19
 44 45  0  0  0  0  0  0  0  0999 V2000
   36.9035    5.9169   18.0380 O   0  0  0  0  0  0
   35.7082    1.2881   22.6406 O   0  0  0  0  0  0
   36.9178    2.0470   25.0080 O   0  0  0  0  0  0
   36.1480    2.0431   27.1727 O   0  0  0  0  0  0
   33.3239    7.5533   27.8946 O   0  0  0  0  0  0
   31.4546    7.3062   25.6884 O   0  0  0  0  0  0
   36.3721    9.4873   24.9882 O   0  0  0  0  0  0
   38.7273    8.3272   24.2707 O   0  0  0  0  0  0
   34.9937    8.3515   20.5523 O   0  0  0  0  0  0
   37.2657    7.2164   19.8552 N   0  0  0  0  0  0
   38.1762    1.2087   26.6184 N   0  0  0  0  0  0
   36.5482    6.2243   19.1501 C   0  0  0  0  0  0
   35.3130    5.6517   19.7758 C   0  0  0  0  0  0
   35.4115    4.9696   20.9465 C   0  0  0  0  0  0
   34.2983    4.3586   21.6665 C   0  0  0  0  0  0
   34.3963    3.3785   22.5887 C   0  0  0  0  0  0
   35.6292    2.7033   23.0778 C   0  0  0  0  0  0
   35.7449    2.7099   24.6672 C   0  0  0  0  0  0
   35.7756    4.2145   25.3048 C   0  0  0  0  0  0
   34.8719    4.5788   26.2013 C   0  0  0  0  0  0
   34.7534    5.8800   26.9380 C   0  0  0  0  0  0
   33.3207    6.4354   26.9750 C   0  0  0  0  0  0
   32.8278    6.8709   25.5942 C   0  0  0  0  0  0
   33.6123    8.0405   25.0068 C   0  0  0  0  0  0
   33.1887    8.4944   23.5888 C   0  0  0  0  0  0
   34.1845    9.5220   22.9487 C   0  0  0  0  0  0
   35.5597    8.9499   22.7639 C   0  0  0  0  0  0
   36.5432    8.9231   23.6697 C   0  0  0  0  0  0
   37.8634    8.3233   23.3992 C   0  0  0  0  0  0
   38.1256    7.7214   22.0887 C   0  0  0  0  0  0
   37.1835    7.7276   21.1474 C   0  0  0  0  0  0
   35.8515    8.3460   21.4325 C   0  0  0  0  0  0
   34.0413    5.8610   19.0146 C   0  0  0  0  0  0
   35.8910    1.0820   21.1948 C   0  0  0  0  0  0
   36.9998    1.7886   26.3545 C   0  0  0  0  0  0
   36.9185    5.1169   24.8350 C   0  0  0  0  0  0
   35.2571    5.6179   28.3746 C   0  0  0  0  0  0
   30.5388    6.2394   26.0896 C   0  0  0  0  0  0
   32.9795    7.2956   22.7098 C   0  0  0  0  0  0
   36.5005    8.7603   26.2192 C   0  0  0  0  0  0
   32.3652    7.9153   27.9991 H   0  0  0  0  0  0
   38.0086    7.6554   19.2927 H   0  0  0  0  0  0
   38.8444    1.0289   25.8553 H   0  0  0  0  0  0
   38.4138    0.9420   27.5845 H   0  0  0  0  0  0
  1 12  2  0  0  0
  2 17  1  0  0  0
  2 34  1  0  0  0
  3 18  1  0  0  0
  3 35  1  0  0  0
  4 35  2  0  0  0
  5 22  1  0  0  0
  6 23  1  0  0  0
  6 38  1  0  0  0
  7 28  1  0  0  0
  7 40  1  0  0  0
  8 29  2  0  0  0
  9 32  2  0  0  0
 10 12  1  0  0  0
 10 31  1  0  0  0
 11 35  1  0  0  0
 12 13  1  0  0  0
 13 14  2  0  0  0
 13 33  1  0  0  0
 14 15  1  0  0  0
 15 16  2  0  0  0
 16 17  1  0  0  0
 17 18  1  0  0  0
 18 19  1  0  0  0
 19 20  2  0  0  0
 19 36  1  0  0  0
 20 21  1  0  0  0
 21 22  1  0  0  0
 21 37  1  0  0  0
 22 23  1  0  0  0
 23 24  1  0  0  0
 24 25  1  0  0  0
 25 26  1  0  0  0
 25 39  1  0  0  0
 26 27  1  0  0  0
 27 28  2  0  0  0
 27 32  1  0  0  0
 28 29  1  0  0  0
 29 30  1  0  0  0
 30 31  2  0  0  0
 31 32  1  0  0  0
  5 41  1  0  0  0
 10 42  1  0  0  0
 11 43  1  0  0  0
 11 44  1  0  0  0
M  END
>  <CHROM.0>
62.20781910,64.30415179,-178.11010172,-58.10081097,7.54113525,-68.17322223

>  <CHROM.1>
67.48601327,-169.27579335,2.88060764,-176.09387410,-63.63147672,120.70739357
35.39014364,5.88426981,23.71740651,-1.24154136,-1.19338794,2.37044843

>  <Name>
L_1YET

>  <RI>
-5.39007e+08

>  <Rbt.Current_Directory>
/workspaces/rDock/perf/23.12.17962e/tests/data

>  <Rbt.Executable>
rbdock ($Id: //depot/dev/client3/rdock/2021.1/src/exe/rbdock.cxx#4 $)

>  <Rbt.Library>
libRbt.so (2021.1, Build901 2021/07/19)

>  <Rbt.Parameter_File>
../../data/scripts/dock.prm

>  <Rbt.Receptor>
1YET_test.prm

>  <SCORE>
-26.0347

>  <SCORE.INTER>
-6.22447

>  <SCORE.INTER.CONST>
1

>  <SCORE.INTER.POLAR>
-0.587536

>  <SCORE.INTER.REPUL>
0.254651

>  <SCORE.INTER.ROT>
5

>  <SCORE.INTER.VDW>
-15.9001

>  <SCORE.INTER.norm>
-0.155612

>  <SCORE.INTRA>
-12.0806

>  <SCORE.INTRA.DIHEDRAL>
-10.6731

>  <SCORE.INTRA.DIHEDRAL.0>
15.3889

>  <SCORE.INTRA.POLAR>
0

>  <SCORE.INTRA.POLAR.0>
0

>  <SCORE.INTRA.REPUL>
0

>  <SCORE.INTRA.REPUL.0>
0

>  <SCORE.INTRA.VDW>
-6.74403

>  <SCORE.INTRA.VDW.0>
7.09596

>  <SCORE.INTRA.norm>
-0.302015

>  <SCORE.RESTR>
0

>  <SCORE.RESTR.CAVITY>
0

>  <SCORE.RESTR.norm>
0

>  <SCORE.SYSTEM>
-7.72963

>  <SCORE.SYSTEM.CONST>
0

>  <SCORE.SYSTEM.DIHEDRAL>
0.548039

>  <SCORE.SYSTEM.POLAR>
-1.94298

>  <SCORE.SYSTEM.VDW>
-1.39751

>  <SCORE.SYSTEM.norm>
-0.193241

>  <SCORE.heavy>
40

>  <SCORE.norm>
-0.650867

$$$$
L_1YET
  rDOCK(R)          3D
libRbt.so/2021.1/901 2021/07/19
 44 45  0  0  0  0  0  0  0  0999 V2000
   38.2688    9.8717   19.8904 O   0  0  0  0  0  0
   33.4581   12.7312   23.4567 O   0  0  0  0  0  0
   31.3110   10.9968   23.6158 O   0  0  0  0  0  0
   30.0023   10.6063   25.4633 O   0  0  0  0  0  0
   32.9431    5.5335   27.9811 O   0  0  0  0  0  0
   35.4846    6.8534   28.4512 O   0  0  0  0  0  0
   34.4780    4.2448   23.8023 O   0  0  0  0  0  0
   33.4398    5.1596   21.4587 O   0  0  0  0  0  0
   38.1789    7.0784   22.7339 O   0  0  0  0  0  0
   37.1751    7.9773   20.4710 N   0  0  0  0  0  0
   29.1138   11.1640   23.4591 N   0  0  0  0  0  0
   37.6918    9.2607   20.7572 C   0  0  0  0  0  0
   37.5833    9.7815   22.1579 C   0  0  0  0  0  0
   36.3553    9.9836   22.7026 C   0  0  0  0  0  0
   36.0986   10.4858   24.0490 C   0  0  0  0  0  0
   34.9496   11.0493   24.4767 C   0  0  0  0  0  0
   33.7036   11.2885   23.6986 C   0  0  0  0  0  0
   32.4069   10.7068   24.4195 C   0  0  0  0  0  0
   32.4768    9.0930   24.6678 C   0  0  0  0  0  0
   32.3581    8.5992   25.8905 C   0  0  0  0  0  0
   32.3445    7.1636   26.3249 C   0  0  0  0  0  0
   33.2301    6.8851   27.5499 C   0  0  0  0  0  0
   34.7193    7.0514   27.2432 C   0  0  0  0  0  0
   35.2493    6.0448   26.2262 C   0  0  0  0  0  0
   36.7409    6.1952   25.8405 C   0  0  0  0  0  0
   37.1540    5.3015   24.6206 C   0  0  0  0  0  0
   36.4055    5.6568   23.3692 C   0  0  0  0  0  0
   35.2067    5.1960   22.9960 C   0  0  0  0  0  0
   34.5414    5.6162   21.7484 C   0  0  0  0  0  0
   35.2047    6.5836   20.8695 C   0  0  0  0  0  0
   36.4030    7.0688   21.1897 C   0  0  0  0  0  0
   37.0699    6.6284   22.4543 C   0  0  0  0  0  0
   38.8803   10.0733   22.8458 C   0  0  0  0  0  0
   33.4075   13.5750   24.6615 C   0  0  0  0  0  0
   30.1221   10.8942   24.2961 C   0  0  0  0  0  0
   32.6363    8.2297   23.4144 C   0  0  0  0  0  0
   30.8737    6.8163   26.6447 C   0  0  0  0  0  0
   35.3440    7.9499   29.4079 C   0  0  0  0  0  0
   37.0655    7.6425   25.6094 C   0  0  0  0  0  0
   34.9342    2.9250   24.1346 C   0  0  0  0  0  0
   33.5160    5.3070   28.8066 H   0  0  0  0  0  0
   37.4226    7.6420   19.5291 H   0  0  0  0  0  0
   29.3100   11.4010   22.4760 H   0  0  0  0  0  0
   28.1415   11.1348   23.7978 H   0  0  0  0  0  0
  1 12  2  0  0  0
  2 17  1  0  0  0
  2 34  1  0  0  0
  3 18  1  0  0  0
  3 35  1  0  0  0
  4 35  2  0  0  0
  5 22  1  0  0  0
  6 23  1  0  0  0
  6 38  1  0  0  0
  7 28  1  0  0  0
  7 40  1  0  0  0
  8 29  2  0  0  0
  9 32  2  0  0  0
 10 12  1  0  0  0
 10 31  1  0  0  0
 11 35  1  0  0  0
 12 13  1  0  0  0
 13 14  2  0  0  0
 13 33  1  0  0  0
 14 15  1  0  0  0
 15 16  2  0  0  0
 16 17  1  0  0  0
 17 18  1  0  0  0
 18 19  1  0  0  0
 19 20  2  0  0  0
 19 36  1  0  0  0
 20 21  1  0  0  0
 21 22  1  0  0  0
 21 37  1  0  0  0
 22 23  1  0  0  0
 23 24  1  0  0  0
 24 25  1  0  0  0
 25 26  1  0  0  0
 25 39  1  0  0  0
 26 27  1  0  0  0
 27 28  2  0  0  0
 27 32  1  0  0  0
 28 29  1  0  0  0
 29 30  1  0  0  0
 30 31  2  0  0  0
 31 32  1  0  0  0
  5 41  1  0  0  0
 10 42  1  0  0  0
 11 43  1  0  0  0
 11 44  1  0  0  0
M  END
>  <CHROM.0>
62.79171791,-58.85233332,54.54316359,105.51681679,7.40565879,-68.14090489

>  <CHROM.1>
-55.71910518,-162.44118539,1.00360198,-179.77395726,-71.53147779,-61.45481770
34.57812587,8.15701091,24.17083266,-0.17685013,0.65515812,-0.58756756

>  <Name>
L_1YET

>  <RI>
-5.39007e+08

>  <Rbt.Current_Directory>
/workspaces/rDock/perf/23.12.17962e/tests/data

>  <Rbt.Executable>
rbdock ($Id: //depot/dev/client3/rdock/2021.1/src/exe/rbdock.cxx#4 $)

>  <Rbt.Library>
libRbt.so (2021.1, Build901 2021/07/19)

>  <Rbt.Parameter_File>
../../data/scripts/dock.prm

>  <Rbt.Receptor>
1YET_test.prm

>  <SCORE>
-44.6051

>  <SCORE.INTER>
-25.1088

>  <SCORE.INTER.CONST>
1

>  <SCORE.INTER.POLAR>
-2.34708

>  <SCORE.INTER.REPUL>
0.00055535

>  <SCORE.INTER.ROT>
5

>  <SCORE.INTER.VDW>
-27.5316

>  <SCORE.INTER.norm>
-0.627721

>  <SCORE.INTRA>
-10.8125

>  <SCORE.INTRA.DIHEDRAL>
-9.4007

>  <SCORE.INTRA.DIHEDRAL.0>
15.3889

>  <SCORE.INTRA.POLAR>
0

>  <SCORE.INTRA.POLAR.0>
0

>  <SCORE.INTRA.REPUL>
0

>  <SCORE.INTRA.REPUL.0>
0

>  <SCORE.INTRA.VDW>
-6.11216

>  <SCORE.INTRA.VDW.0>
7.09596

>  <SCORE.INTRA.norm>
-0.270313

>  <SCORE.RESTR>
0

>  <SCORE.RESTR.CAVITY>
0

>  <SCORE.RESTR.norm>
0

>  <SCORE.SYSTEM>
-8.6837

>  <SCORE.SYSTEM.CONST>
0

>  <SCORE.SYSTEM.DIHEDRAL>
3.63459

>  <SCORE.SYSTEM.POLAR>
-2.86954

>  <SCORE.SYSTEM.VDW>
-0.744579

>  <SCORE.SYSTEM.norm>
-0.217093

>  <SCORE.heavy>
40

>  <SCORE.norm>
-1.11513

$$$$
L_1YET
  rDOCK(R)          3D
libRbt.so/2021.1/901 2021/07/19
 44 45  0  0  0  0  0  0  0  0999 V2000
   38.2427   10.1933   20.2435 O   0  0  0  0  0  0
   33.4678   12.8906   23.9802 O   0  0  0  0  0  0
   31.2940   11.1828   24.0242 O   0  0  0  0  0  0
   29.9678   10.6293   25.8168 O   0  0  0  0  0  0
   32.8322    5.4249   28.0302 O   0  0  0  0  0  0
   35.3924    6.6725   28.5879 O   0  0  0  0  0  0
   34.3572    4.3848   23.7791 O   0  0  0  0  0  0
   33.3386    5.4648   21.4980 O   0  0  0  0  0  0
   38.1034    7.2241   22.9007 O   0  0  0  0  0  0
   37.1187    8.2824   20.6992 N   0  0  0  0  0  0
   29.0951   11.2567   23.8263 N   0  0  0  0  0  0
   37.6543    9.5366   21.0683 C   0  0  0  0  0  0
   37.5505    9.9677   22.4995 C   0  0  0  0  0  0
   36.3244   10.1530   23.0544 C   0  0  0  0  0  0
   36.0723   10.5713   24.4301 C   0  0  0  0  0  0
   34.9310   11.1236   24.8917 C   0  0  0  0  0  0
   33.6906   11.4317   24.1289 C   0  0  0  0  0  0
   32.3834   10.8248   24.8091 C   0  0  0  0  0  0
   32.4282    9.1974   24.9528 C   0  0  0  0  0  0
   32.2991    8.6277   26.1409 C   0  0  0  0  0  0
   32.2625    7.1674   26.4818 C   0  0  0  0  0  0
   33.1409    6.7969   27.6875 C   0  0  0  0  0  0
   34.6331    6.9598   27.3942 C   0  0  0  0  0  0
   35.1502    6.0128   26.3151 C   0  0  0  0  0  0
   36.6447    6.1647   25.9419 C   0  0  0  0  0  0
   37.0470    5.3453   24.6675 C   0  0  0  0  0  0
   36.3069    5.7921   23.4406 C   0  0  0  0  0  0
   35.1022    5.3747   23.0369 C   0  0  0  0  0  0
   34.4463    5.8847   21.8180 C   0  0  0  0  0  0
   35.1264    6.8965   21.0043 C   0  0  0  0  0  0
   36.3312    7.3415   21.3568 C   0  0  0  0  0  0
   36.9883    6.8102   22.5912 C   0  0  0  0  0  0
   38.8502   10.1945   23.2066 C   0  0  0  0  0  0
   32.6873   13.2942   22.7995 C   0  0  0  0  0  0
   30.0977   10.9873   24.6702 C   0  0  0  0  0  0
   32.5774    8.4144   23.6466 C   0  0  0  0  0  0
   30.7858    6.8229   26.7766 C   0  0  0  0  0  0
   35.2902    7.7212   29.6015 C   0  0  0  0  0  0
   36.9919    7.6188   25.8051 C   0  0  0  0  0  0
   34.6874    2.9900   23.8549 C   0  0  0  0  0  0
   33.3763    5.1469   28.8595 H   0  0  0  0  0  0
   37.3633    8.0048   19.7379 H   0  0  0  0  0  0
   29.2998   11.5572   22.8625 H   0  0  0  0  0  0
   28.1185   11.1637   24.1403 H   0  0  0  0  0  0
  1 12  2  0  0  0
  2 17  1  0  0  0
  2 34  1  0  0  0
  3 18  1  0  0  0
  3 35  1  0  0  0
  4 35  2  0  0  0
  5 22  1  0  0  0
  6 23  1  0  0  0
  6 38  1  0  0  0
  7 28  1  0  0  0
  7 40  1  0  0  0
  8 29  2  0  0  0
  9 32  2  0  0  0
 10 12  1  0  0  0
 10 31  1  0  0  0
 11 35  1  0  0  0
 12 13  1  0  0  0
 13 14  2  0  0  0
 13 33  1  0  0  0
 14 15  1  0  0  0
 15 16  2  0  0  0
 16 17  1  0  0  0
 17 18  1  0  0  0
 18 19  1  0  0  0
 19 20  2  0  0  0
 19 36  1  0  0  0
 20 21  1  0  0  0
 21 22  1  0  0  0
 21 37  1  0  0  0
 22 23  1  0  0  0
 23 24  1  0  0  0
 24 25  1  0  0  0
 25 26  1  0  0  0
 25 39  1  0  0  0
 26 27  1  0  0  0
 27 28  2  0  0  0
 27 32  1  0  0  0
 28 29  1  0  0  0
 29 30  1  0  0  0
 30 31  2  0  0  0
 31 32  1  0  0  0
  5 41  1  0  0  0
 10 42  1  0  0  0
 11 43  1  0  0  0
 11 44  1  0  0  0
M  END
>  <CHROM.0>
62.81267260,-58.15417092,-65.74127259,-143.34368950,-176.45018893,-68.37175072

>  <CHROM.1>
153.35565991,-165.68803831,4.53544200,-177.88887697,-72.81258653,-71.55973605
34.49360084,8.24525559,24.32646478,-0.15166548,0.62652087,-0.58883898

>  <Name>
L_1YET

>  <RI>
-5.39007e+08

>  <Rbt.Current_Directory>
/workspaces/rDock/perf/23.12.17962e/tests/data

>  <Rbt.Executable>
rbdock ($Id: //depot/dev/client3/rdock/2021.1/src/exe/rbdock.cxx#4 $)

>  <Rbt.Library>
libRbt.so (2021.1, Build901 2021/07/19)

>  <Rbt.Parameter_File>
../../data/scripts/dock.prm

>  <Rbt.Receptor>
1YET_test.prm

>  <SCORE>
-45.7995

>  <SCORE.INTER>
-26.5214

>  <SCORE.INTER.CONST>
1

>  <SCORE.INTER.POLAR>
-2.73453

>  <SCORE.INTER.REPUL>
0

>  <SCORE.INTER.ROT>
5

>  <SCORE.INTER.VDW>
-27.624

>  <SCORE.INTER.norm>
-0.663034

>  <SCORE.INTRA>
-10.3214

>  <SCORE.INTRA.DIHEDRAL>
-6.0985

>  <SCORE.INTRA.DIHEDRAL.0>
15.3889

>  <SCORE.INTRA.POLAR>
0

>  <SCORE.INTRA.POLAR.0>
0

>  <SCORE.INTRA.REPUL>
0

>  <SCORE.INTRA.REPUL.0>
0

>  <SCORE.INTRA.VDW>
-7.27218

>  <SCORE.INTRA.VDW.0>
7.09596

>  <SCORE.INTRA.norm>
-0.258036

>  <SCORE.RESTR>
0

>  <SCORE.RESTR.CAVITY>
0

>  <SCORE.RESTR.norm>
0

>  <SCORE.SYSTEM>
-8.95671

>  <SCORE.SYSTEM.CONST>
0

>  <SCORE.SYSTEM.DIHEDRAL>
2.91825

>  <SCORE.SYSTEM.POLAR>
-2.86902

>  <SCORE.SYSTEM.VDW>
-0.661176

>  <SCORE.SYSTEM.norm>
-0.223918

>  <SCORE.heavy>
40

>  <SCORE.norm>
-1.14499

$$$$
L_1YET
  rDOCK(R)          3D
libRbt.so/2021.1/901 2021/07/19
 44 45  0  0  0  0  0  0  0  0999 V2000
   38.2479   10.2021   20.1714 O   0  0  0  0  0  0
   33.4847   12.9092   23.9159 O   0  0  0  0  0  0
   31.3082   11.2051   23.9650 O   0  0  0  0  0  0
   29.9857   10.6544   25.7612 O   0  0  0  0  0  0
   32.8446    5.4468   27.9712 O   0  0  0  0  0  0
   35.4080    6.6905   28.5233 O   0  0  0  0  0  0
   34.3597    4.4020   23.7177 O   0  0  0  0  0  0
   33.3384    5.4824   21.4379 O   0  0  0  0  0  0
   38.1089    7.2346   22.8306 O   0  0  0  0  0  0
   37.1217    8.2934   20.6303 N   0  0  0  0  0  0
   29.1095   11.3195   23.7844 N   0  0  0  0  0  0
   37.6600    9.5469   20.9977 C   0  0  0  0  0  0
   37.5597    9.9788   22.4289 C   0  0  0  0  0  0
   36.3350   10.1665   22.9861 C   0  0  0  0  0  0
   36.0862   10.5859   24.3620 C   0  0  0  0  0  0
   34.9467   11.1404   24.8255 C   0  0  0  0  0  0
   33.7054   11.4500   24.0649 C   0  0  0  0  0  0
   32.3985   10.8457   24.7480 C   0  0  0  0  0  0
   32.4409    9.2183   24.8924 C   0  0  0  0  0  0
   32.3131    8.6495   26.0812 C   0  0  0  0  0  0
   32.2748    7.1894   26.4229 C   0  0  0  0  0  0
   33.1549    6.8182   27.6271 C   0  0  0  0  0  0
   34.6468    6.9784   27.3308 C   0  0  0  0  0  0
   35.1602    6.0299   26.2513 C   0  0  0  0  0  0
   36.6543    6.1792   25.8751 C   0  0  0  0  0  0
   37.0527    5.3585   24.6004 C   0  0  0  0  0  0
   36.3111    5.8058   23.3746 C   0  0  0  0  0  0
   35.1049    5.3902   22.9734 C   0  0  0  0  0  0
   34.4475    5.9006   21.7556 C   0  0  0  0  0  0
   35.1277    6.9109   20.9400 C   0  0  0  0  0  0
   36.3338    7.3541   21.2899 C   0  0  0  0  0  0
   36.9924    6.8224   22.5234 C   0  0  0  0  0  0
   38.8611   10.2039   23.1334 C   0  0  0  0  0  0
   32.6607   13.3100   22.7641 C   0  0  0  0  0  0
   30.1134   11.0231   24.6177 C   0  0  0  0  0  0
   32.5863    8.4344   23.5864 C   0  0  0  0  0  0
   30.7981    6.8475   26.7207 C   0  0  0  0  0  0
   35.3649    7.7700   29.5083 C   0  0  0  0  0  0
   37.0036    7.6327   25.7369 C   0  0  0  0  0  0
   34.7864    3.0517   23.9521 C   0  0  0  0  0  0
   33.3927    5.1671   28.7972 H   0  0  0  0  0  0
   37.3639    8.0148   19.6687 H   0  0  0  0  0  0
   29.3124   11.6272   22.8226 H   0  0  0  0  0  0
   28.1337   11.2399   24.1047 H   0  0  0  0  0  0
  1 12  2  0  0  0
  2 17  1  0  0  0
  2 34  1  0  0  0
  3 18  1  0  0  0
  3 35  1  0  0  0
  4 35  2  0  0  0
  5 22  1  0  0  0
  6 23  1  0  0  0
  6 38  1  0  0  0
  7 28  1  0  0  0
  7 40  1  0  0  0
  8 29  2  0  0  0
  9 32  2  0  0  0
 10 12  1  0  0  0
 10 31  1  0  0  0
 11 35  1  0  0  0
 12 13  1  0  0  0
 13 14  2  0  0  0
 13 33  1  0  0  0
 14 15  1  0  0  0
 15 16  2  0  0  0
 16 17  1  0  0  0
 17 18  1  0  0  0
 18 19  1  0  0  0
 19 20  2  0  0  0
 19 36  1  0  0  0
 20 21  1  0  0  0
 21 22  1  0  0  0
 21 37  1  0  0  0
 22 23  1  0  0  0
 23 24  1  0  0  0
 24 25  1  0  0  0
 25 26  1  0  0  0
 25 39  1  0  0  0
 26 27  1  0  0  0
 27 28  2  0  0  0
 27 32  1  0  0  0
 28 29  1  0  0  0
 29 30  1  0  0  0
 30 31  2  0  0  0
 31 32  1  0  0  0
  5 41  1  0  0  0
 10 42  1  0  0  0
 11 43  1  0  0  0
 11 44  1  0  0  0
M  END
>  <CHROM.0>
61.77681755,179.71524812,-65.74639953,60.00961258,7.79230598,63.31884815

>  <CHROM.1>
155.52139670,-165.14608221,3.26862973,-178.11893874,-75.75911891,-62.18199427
34.50656668,8.26568170,24.26741162,-0.16349640,0.62688205,-0.59402855

>  <Name>
L_1YET

>  <RI>
-5.39007e+08

>  <Rbt.Current_Directory>
/workspaces/rDock/perf/23.12.17962e/tests/data

>  <Rbt.Executable>
rbdock ($Id: //depot/dev/client3/rdock/2021.1/src/exe/rbdock.cxx#4 $)

>  <Rbt.Library>
libRbt.so (2021.1, Build901 2021/07/19)

>  <Rbt.Parameter_File>
../../data/scripts/dock.prm

>  <Rbt.Receptor>
1YET_test.prm

>  <SCORE>
-40.7907

>  <SCORE.INTER>
-24.1639

>  <SCORE.INTER.CONST>
1

>  <SCORE.INTER.POLAR>
-2.09501

>  <SCORE.INTER.REPUL>
0.00203538

>  <SCORE.INTER.ROT>
5

>  <SCORE.INTER.VDW>
-27.451

>  <SCORE.INTER.norm>
-0.604097

>  <SCORE.INTRA>
-10.2781

>  <SCORE.INTRA.DIHEDRAL>
-6.68432

>  <SCORE.INTRA.DIHEDRAL.0>
15.3889

>  <SCORE.INTRA.POLAR>
0

>  <SCORE.INTRA.POLAR.0>
0

>  <SCORE.INTRA.REPUL>
0

>  <SCORE.INTRA.REPUL.0>
0

>  <SCORE.INTRA.VDW>
-6.93596

>  <SCORE.INTRA.VDW.0>
7.09596

>  <SCORE.INTRA.norm>
-0.256953

>  <SCORE.RESTR>
0

>  <SCORE.RESTR.CAVITY>
0

>  <SCORE.RESTR.norm>
0

>  <SCORE.SYSTEM>
-6.34872

>  <SCORE.SYSTEM.CONST>
0

>  <SCORE.SYSTEM.DIHEDRAL>
0.247655

>  <SCORE.SYSTEM.POLAR>
-1.03953

>  <SCORE.SYSTEM.VDW>
-2.93814

>  <SCORE.SYSTEM.norm>
-0.158718

>  <SCORE.heavy>
40

>  <SCORE.norm>
-1.01977

$$$$